Circuit: CIRCUIT C:\Users\up1053711\Desktop\Lab4_Krat.MSK

Direct Newton iteration for .op point succeeded.
